pdb/IAC.pdb
 OpenBabel09131300253D

 22 23  0  0  0  0  0  0  0  0999 V2000
    5.7460 -110.9510  -25.1870 C   0  0  0  0  0  0  0  0  0  0  0  0
    6.9540 -111.2500  -25.8200 C   0  0  0  0  0  0  0  0  0  0  0  0
    8.2020 -111.1960  -25.1320 C   0  0  0  0  0  0  0  0  0  0  0  0
    8.2030 -110.8360  -23.7680 C   0  0  0  0  0  0  0  0  0  0  0  0
    6.9770 -110.5380  -23.1460 C   0  0  0  0  0  0  0  0  0  0  0  0
    5.7430 -110.6180  -23.8230 C   0  0  0  0  0  0  0  0  0  0  0  0
    6.6080 -111.5480  -27.1500 C   0  0  0  0  0  0  0  0  0  0  0  0
    5.2560 -111.4270  -27.2650 C   0  0  0  0  0  0  0  0  0  0  0  0
    7.5830 -111.9480  -28.2980 C   0  0  0  0  0  0  0  0  0  0  0  0
    8.2840 -113.2910  -27.9940 C   0  0  0  0  0  0  0  0  0  0  0  0
    4.7470 -111.0620  -26.0730 N   0  0  0  0  0  0  0  0  0  0  0  0
    9.4970 -113.2960  -28.1430 O   0  0  0  0  0  0  0  0  0  0  0  0
    7.6010 -114.2740  -27.6380 O   0  0  0  0  0  0  0  0  0  0  0  0
    9.0841 -111.4152  -25.6207 H   0  0  0  0  0  0  0  0  0  0  0  0
    9.0865 -110.7921  -23.2365 H   0  0  0  0  0  0  0  0  0  0  0  0
    6.9810 -110.2495  -22.1552 H   0  0  0  0  0  0  0  0  0  0  0  0
    4.8567 -110.4358  -23.3268 H   0  0  0  0  0  0  0  0  0  0  0  0
    4.7104 -111.5888  -28.1259 H   0  0  0  0  0  0  0  0  0  0  0  0
    7.0296 -112.0416  -29.2090 H   0  0  0  0  0  0  0  0  0  0  0  0
    8.3311 -111.1882  -28.3870 H   0  0  0  0  0  0  0  0  0  0  0  0
    3.7943 -110.9024  -25.8831 H   0  0  0  0  0  0  0  0  0  0  0  0
    6.6723 -114.1905  -27.5459 H   0  0  0  0  0  0  0  0  0  0  0  0
  1  6  1  0  0  0  0
  2  1  2  0  0  0  0
  2  3  1  0  0  0  0
  3  4  2  0  0  0  0
  3 14  1  0  0  0  0
  4  5  1  0  0  0  0
  4 15  1  0  0  0  0
  5 16  1  0  0  0  0
  6  5  2  0  0  0  0
  6 17  1  0  0  0  0
  7  2  1  0  0  0  0
  8  7  2  0  0  0  0
  8 11  1  0  0  0  0
  8 18  1  0  0  0  0
  9 10  1  0  0  0  0
  9  7  1  0  0  0  0
  9 19  1  0  0  0  0
  9 20  1  0  0  0  0
 10 13  1  0  0  0  0
 11  1  1  0  0  0  0
 11 21  1  0  0  0  0
 12 10  2  0  0  0  0
 13 22  1  0  0  0  0
M  END
